*Preprint, echo=NO, model=NO, history=NO, contact=NO
**
** PARTS
**
*Part, name=Beam
*Node
      1,          8.5,       -11.25,          10.
      2,          8.5,       -10.25,          10.
      3,          8.5,        -9.25,          10.
      4,          8.5,        -8.25,          10.
      5,          8.5,        -7.25,          10.
      6,          8.5,       -11.25,           9.
      7,          8.5,       -10.25,           9.
      8,          8.5,        -9.25,           9.
      9,          8.5,        -8.25,           9.
     10,          8.5,        -7.25,           9.
     11,          8.5,       -11.25,           8.
     12,          8.5,       -10.25,           8.
     13,          8.5,        -9.25,           8.
     14,          8.5,        -8.25,           8.
     15,          8.5,        -7.25,           8.
     16,          8.5,       -11.25,           7.
     17,          8.5,       -10.25,           7.
     18,          8.5,        -9.25,           7.
     19,          8.5,        -8.25,           7.
     20,          8.5,        -7.25,           7.
** ... 255 like lines cut
*Element, type=C3D8
  1,  56,  57,  62,  61,   1,   2,   7,   6
  2,  57,  58,  63,  62,   2,   3,   8,   7
  3,  58,  59,  64,  63,   3,   4,   9,   8
  4,  59,  60,  65,  64,   4,   5,  10,   9
  5,  61,  62,  67,  66,   6,   7,  12,  11
  6,  62,  63,  68,  67,   7,   8,  13,  12
  7,  63,  64,  69,  68,   8,   9,  14,  13
  8,  64,  65,  70,  69,   9,  10,  15,  14
  9,  66,  67,  72,  71,  11,  12,  17,  16
 10,  67,  68,  73,  72,  12,  13,  18,  17
 11,  68,  69,  74,  73,  13,  14,  19,  18
 12,  69,  70,  75,  74,  14,  15,  20,  19
 13,  71,  72,  77,  76,  16,  17,  22,  21
 14,  72,  73,  78,  77,  17,  18,  23,  22
 15,  73,  74,  79,  78,  18,  19,  24,  23
 16,  74,  75,  80,  79,  19,  20,  25,  24
 17,  76,  77,  82,  81,  21,  22,  27,  26
 18,  77,  78,  83,  82,  22,  23,  28,  27
 19,  78,  79,  84,  83,  23,  24,  29,  28
 20,  79,  80,  85,  84,  24,  25,  30,  29
** ... 140 like lines cut
*Nset, nset=_PickedSet2, internal, generate
   1,  275,    1
*Elset, elset=_PickedSet2, internal, generate
   1,  160,    1
** Section: Beam_Solid
*Solid Section, elset=_PickedSet2, material=Steel
,
*End Part
**  
**
** ASSEMBLY
**
*Assembly, name=Assembly
**  
*Instance, name=Beam-1, part=Beam
*End Instance
**  
*Nset, nset=_PickedSet4, internal, instance=Beam-1
   1,   5, 221, 225
*Nset, nset=_PickedSet5, internal, instance=Beam-1
  51,  52,  53,  54,  55, 106, 107, 108, 109, 110, 161, 162, 163, 164, 165, 216
 217, 218, 219, 220, 271, 272, 273, 274, 275
*Elset, elset=_PickedSet5, internal, instance=Beam-1
  37,  38,  39,  40,  77,  78,  79,  80, 117, 118, 119, 120, 157, 158, 159, 160
*End Assembly
** 
** MATERIALS
** 
*Material, name=Steel
*Elastic
 2.1e+11, 0.25
** 
** BOUNDARY CONDITIONS
** 
** Name: BC-Fix Type: Displacement/Rotation
*Boundary
_PickedSet5, 1, 1
_PickedSet5, 2, 2
_PickedSet5, 3, 3
** ----------------------------------------------------------------
** 
** STEP: Step-1
** 
*Step, name=Step-1, nlgeom=NO
*Static
1., 1., 1e-05, 1.
** 
** LOADS
** 
** Name: Load-Force   Type: Concentrated force
*Cload
_PickedSet4, 2, -1e+06
** 
** OUTPUT REQUESTS
** 
*Restart, write, frequency=0
** 
** FIELD OUTPUT: F-Output-1
** 
*Output, field, variable=PRESELECT
** 
** HISTORY OUTPUT: H-Output-1
** 
*Output, history, variable=PRESELECT
*End Step
