*Heading
** Job name: Job-10 Model name: Model-1
** Generated by: Abaqus/CAE 2019
*Preprint, echo=NO, model=NO, history=NO, contact=NO
**
** PARTS
**
*Part, name=Beam
*Node
      1,          8.5,       -11.25,          10.
      2,          8.5,        -7.25,          10.
      3,          8.5,        -7.25,           0.
      4,          8.5,       -11.25,           0.
      5,         12.5,        -7.25,          10.
      6,         12.5,        -7.25,           0.
      7,         12.5,       -11.25,           0.
      8,         12.5,       -11.25,          10.
      9,          8.5,       -10.25,          10.
     10,          8.5,        -9.25,          10.
     11,          8.5,        -8.25,          10.
     12,          8.5,        -7.25,           9.
     13,          8.5,        -7.25,           8.
     14,          8.5,        -7.25,           7.
     15,          8.5,        -7.25,           6.
     16,          8.5,        -7.25,           5.
     17,          8.5,        -7.25,           4.
     18,          8.5,        -7.25,           3.
     19,          8.5,        -7.25,           2.
     20,          8.5,        -7.25,           1.
** ... 312 like lines cut
*Element, type=C3D4
   1, 195, 196, 197, 184
   2, 195, 198, 199, 200
   3, 195, 201, 198, 200
   4, 195, 202, 200, 203
   5, 204, 108,  16,  15
   6, 205, 195, 184, 196
   7, 205, 206, 202, 195
   8, 206, 207, 208, 209
   9, 209, 210, 211, 196
  10, 209, 212, 213, 214
  11, 209, 211, 215, 216
  12, 209, 217, 207, 218
  13, 209, 215, 211, 219
  14, 220, 208, 221, 211
  15, 220, 203, 211, 199
  16, 198, 222, 109, 223
  17, 198, 223, 109, 197
  18, 198, 199, 210, 196
  19, 224, 178, 225, 226
  20, 224, 227, 228, 229
** ... 1284 like lines cut
*Nset, nset=_PickedSet2, internal, generate
   1,  332,    1
*Elset, elset=_PickedSet2, internal, generate
    1,  1304,     1
** Section: Beam_Solid
*Solid Section, elset=_PickedSet2, material=Steel
,
*End Part
**  
**
** ASSEMBLY
**
*Assembly, name=Assembly
**  
*Instance, name=Beam-1, part=Beam
*End Instance
**  
*Nset, nset=_PickedSet4, internal, instance=Beam-1
 1, 2, 5, 8
*Nset, nset=_PickedSet5, internal, instance=Beam-1
   3,   4,   6,   7,  21,  22,  23,  45,  46,  47,  48,  49,  50,  51,  52,  53
 123, 124, 125, 126, 127, 128, 129, 130, 131
*Elset, elset=_PickedSet5, internal, instance=Beam-1
  269,  271,  528,  537,  724,  725,  737,  738,  749,  750,  816,  865,  883,  968,  972,  981
  985, 1007, 1055, 1060, 1062, 1065, 1068, 1081, 1089, 1104, 1105, 1121, 1151, 1182, 1254, 1255
*End Assembly
** 
** MATERIALS
** 
*Material, name=Steel
*Elastic
 2.1e+11, 0.25
** 
** BOUNDARY CONDITIONS
** 
** Name: BC-Fix Type: Displacement/Rotation
*Boundary
_PickedSet5, 1, 1
_PickedSet5, 2, 2
_PickedSet5, 3, 3
** ----------------------------------------------------------------
** 
** STEP: Step-1
** 
*Step, name=Step-1, nlgeom=NO
*Static
1., 1., 1e-05, 1.
** 
** LOADS
** 
** Name: Load-Force   Type: Concentrated force
*Cload
_PickedSet4, 2, -1e+06
** 
** OUTPUT REQUESTS
** 
*Restart, write, frequency=0
** 
** FIELD OUTPUT: F-Output-1
** 
*Output, field, variable=PRESELECT
** 
** HISTORY OUTPUT: H-Output-1
** 
*Output, history, variable=PRESELECT
*End Step
