*Heading
** Job name: Job-1 Model name: Model-1
** Generated by: Abaqus/CAE 6.10-1
*Preprint, echo=NO, model=NO, history=NO, contact=NO
**
** PARTS
**
*Part, name=beam
*Node
      1,          40.,          10.,           5.
      2,           0.,          10.,           5.
      3,           0.,           5.,           5.
      4,          40.,           5.,           5.
      5,          40.,           0.,           5.
      6,           0.,           0.,           5.
      7,           0.,           5.,           0.
      8,          40.,           5.,           0.
      9,          40.,          10.,           0.
     10,           0.,          10.,           0.
     11,           0.,           0.,           0.
     12,          40.,           0.,           0.
     13,          35.,          10.,           5.
     14,          30.,          10.,           5.
     15,          25.,          10.,           5.
     16,          20.,          10.,           5.
     17,          15.,          10.,           5.
     18,          10.,          10.,           5.
     19,           5.,          10.,           5.
     20,           5.,           5.,           5.
** ... 43 like lines cut
*Element, type=STRI3
 1, 26,  4, 13
 2,  1, 13,  4
 3, 25, 26, 14
 4, 13, 14, 26
 5, 24, 25, 15
 6, 14, 15, 25
 7, 23, 24, 16
 8, 15, 16, 24
 9, 22, 23, 17
10, 16, 17, 23
11, 21, 22, 18
12, 17, 18, 22
13, 20, 21, 19
14, 18, 19, 21
15,  3, 20,  2
16, 19,  2, 20
17,  5, 27, 26
18, 26,  4,  5
19, 27, 28, 25
20, 25, 26, 27
** ... 76 like lines cut
*Elset, elset=_PickedSet5, internal, generate
  1,  96,   1
** Section: Section-1
*Shell Section, elset=_PickedSet5, material=Material-1
0.25, 5
*End Part
**  
**
** ASSEMBLY
**
*Assembly, name=Assembly
**  
*Instance, name=beam-1, part=beam
*End Instance
**  
*Nset, nset=_PickedSet4, internal, instance=beam-1
  2,  3,  6,  7, 10, 11, 34
*Elset, elset=_PickedSet4, internal, instance=beam-1
 15, 31, 47, 63, 66, 96
*Nset, nset=_PickedSet5, internal, instance=beam-1
 12,
*Nset, nset=_PickedSet6, internal, instance=beam-1
 1,
*End Assembly
** 
** MATERIALS
** 
*Material, name=Material-1
*Elastic
10000., 0.3
** ----------------------------------------------------------------
** 
** STEP: Step-1
** 
*Step, name=Step-1
*Static
1., 1., 1e-05, 1.
** 
** BOUNDARY CONDITIONS
** 
** Name: BC-1 Type: Symmetry/Antisymmetry/Encastre
*Boundary
_PickedSet4, ENCASTRE
** 
** LOADS
** 
** Name: Load-1   Type: Concentrated force
*Cload
_PickedSet5, 2, 1.6
** Name: Load-2   Type: Concentrated force
*Cload
_PickedSet6, 2, -1.6
** 
** OUTPUT REQUESTS
** 
*Restart, write, frequency=0
** 
** FIELD OUTPUT: F-Output-1
** 
*Output, field, variable=PRESELECT
** 
** HISTORY OUTPUT: H-Output-1
** 
*Output, history, variable=PRESELECT
*End Step
